Version 4
SHEET 1 1528 680
WIRE 320 -288 320 -320
WIRE 560 -240 560 -272
WIRE 320 -176 320 -208
WIRE 320 -176 256 -176
WIRE 320 -144 320 -176
WIRE 560 -128 560 -160
WIRE 736 -96 656 -96
WIRE 896 -96 816 -96
WIRE 1280 -96 1200 -96
WIRE 1376 -80 1344 -80
WIRE 1408 -80 1376 -80
WIRE 1072 -64 1072 -96
WIRE 1280 -64 1072 -64
WIRE 1072 -48 1072 -64
WIRE 320 -32 320 -64
WIRE 1312 -32 1312 -48
WIRE 656 0 656 -96
WIRE 736 0 656 0
WIRE 896 0 896 -96
WIRE 896 0 800 0
WIRE 1200 32 1200 -96
WIRE 1248 32 1200 32
WIRE 1376 32 1376 -80
WIRE 1376 32 1312 32
WIRE 1072 48 1072 32
WIRE -32 112 -64 112
WIRE 112 112 48 112
WIRE 320 112 224 112
WIRE 416 112 320 112
WIRE 544 112 480 112
WIRE 656 112 656 0
WIRE 656 112 624 112
WIRE 736 112 656 112
WIRE 896 128 896 0
WIRE 896 128 800 128
WIRE 976 128 896 128
WIRE 1072 128 1040 128
WIRE 1200 128 1200 32
WIRE 1200 128 1152 128
WIRE 1248 128 1200 128
WIRE 1376 128 1376 32
WIRE 1376 128 1328 128
WIRE 736 144 656 144
WIRE 768 176 768 160
WIRE 112 208 112 192
WIRE 112 208 -64 208
WIRE 224 208 224 192
WIRE 320 208 320 192
WIRE 320 208 224 208
WIRE 512 208 320 208
WIRE 656 208 656 144
WIRE 656 208 512 208
WIRE 512 240 512 208
WIRE 656 240 656 208
WIRE 896 240 896 128
WIRE 512 336 512 320
WIRE 656 336 656 320
WIRE 896 336 896 320
FLAG 560 -272 Vcc
FLAG 512 336 Vcc
FLAG 656 336 0
FLAG 768 176 0
FLAG 768 96 Vcc
FLAG 896 336 0
FLAG 1312 -32 0
FLAG 1312 -112 Vcc
FLAG 1072 48 0
FLAG 1072 -176 Vcc
FLAG 1408 -80 Vac
FLAG 560 -128 0
FLAG 256 -176 0
FLAG 320 -320 Vac_in+
FLAG 320 -32 Vac_in-
FLAG -64 112 Vac_in+
FLAG -64 208 Vac_in-
SYMBOL ind2 96 208 M180
WINDOW 0 36 80 Left 2
WINDOW 3 36 40 Left 2
SYMATTR InstName L1
SYMATTR Value 17
SYMATTR Type ind
SYMBOL ind2 240 208 R180
WINDOW 0 36 80 Left 2
WINDOW 3 36 40 Left 2
SYMATTR InstName L2
SYMATTR Value 17
SYMATTR Type ind
SYMBOL res 64 96 R90
WINDOW 0 0 56 VBottom 2
WINDOW 3 32 56 VTop 2
SYMATTR InstName R1
SYMATTR Value 32k
SYMBOL res 304 96 R0
SYMATTR InstName R2
SYMATTR Value 100
SYMBOL cap 480 96 R90
WINDOW 0 0 32 VBottom 2
WINDOW 3 32 32 VTop 2
SYMATTR InstName C1
SYMATTR Value 1µ
SYMBOL res 640 96 R90
WINDOW 0 0 56 VBottom 2
WINDOW 3 32 56 VTop 2
SYMATTR InstName R3
SYMATTR Value 10k
SYMBOL res 496 224 R0
SYMATTR InstName R4
SYMATTR Value 10k
SYMBOL res 640 224 R0
SYMATTR InstName R5
SYMATTR Value 10k
SYMBOL voltage 560 -256 R0
WINDOW 123 0 0 Left 0
WINDOW 39 0 0 Left 0
SYMATTR InstName V1
SYMATTR Value 5
SYMBOL Opamps\\OP07 768 64 R0
SYMATTR InstName U1
SYMBOL cap 800 -16 R90
WINDOW 0 0 32 VBottom 2
WINDOW 3 32 32 VTop 2
SYMATTR InstName C2
SYMATTR Value 100p
SYMBOL res 832 -112 R90
WINDOW 0 0 56 VBottom 2
WINDOW 3 32 56 VTop 2
SYMATTR InstName R6
SYMATTR Value 100k
SYMBOL res 880 224 R0
SYMATTR InstName R7
SYMATTR Value 10k
SYMBOL cap 1040 112 R90
WINDOW 0 0 32 VBottom 2
WINDOW 3 32 32 VTop 2
SYMATTR InstName C3
SYMATTR Value 1µ
SYMBOL res 1168 112 R90
WINDOW 0 0 56 VBottom 2
WINDOW 3 32 56 VTop 2
SYMATTR InstName R8
SYMATTR Value 10k
SYMBOL Opamps\\OP07 1312 -144 R0
SYMATTR InstName U2
SYMBOL cap 1312 16 R90
WINDOW 0 0 32 VBottom 2
WINDOW 3 32 32 VTop 2
SYMATTR InstName C4
SYMATTR Value 100p
SYMBOL res 1344 112 R90
WINDOW 0 0 56 VBottom 2
WINDOW 3 32 56 VTop 2
SYMATTR InstName R9
SYMATTR Value 100k
SYMBOL res 1056 -192 R0
SYMATTR InstName R10
SYMATTR Value 10k
SYMBOL res 1056 -64 R0
SYMATTR InstName R11
SYMATTR Value 10k
SYMBOL voltage 320 -304 R0
WINDOW 123 0 0 Left 0
WINDOW 39 0 0 Left 0
SYMATTR InstName V2
SYMATTR Value SINE(0 24 60)
SYMBOL voltage 320 -160 R0
WINDOW 123 0 0 Left 0
WINDOW 39 0 0 Left 0
SYMATTR InstName V3
SYMATTR Value SINE(0 24 60)
TEXT 112 64 Left 2 !K L1 L2 1
TEXT 744 -216 Left 2 !.tran 100m
